0.5 0.5 0.8
A 15 24 6
B 13 20 4
C 10 18 10
D 13 24 6
E 15 24 6
F 12 30 5
G 23 5 6
H 30 8 2
I 10 10 8
J 11 10 9
K 15 9 14
L 11 8 9
M 14 7 5
N 12 6 6
O 15 24 6
P 12 30 5
Q 23 5 6
R 30 8 2
S 10 10 8
T 11 10 9
U 15 9 14
V 11 8 9
W 14 7 5
X 12 6 6
Y 15 24 6
Z 12 30 5
AA 23 5 6
AB 30 8 2
AC 10 10 8
AD 11 10 9
AE 15 9 14
AF 11 8 9
AG 14 7 5
AH 12 6 6
AI 15 24 6
AJ 12 30 5
AK 23 5 6
AL 30 8 2
AM 10 10 8
AN 11 10 9
AO 15 9 14
AP 11 8 9
AQ 14 7 5
AR 12 6 6
AS 10 10 8
AT 11 10 9
AU 15 9 14
AV 11 8 9
AW 14 7 5
AX 12 6 6
AY 10 10 8
AZ 11 10 9
BA 23 5 6
BB 30 8 2
BC 10 10 8
BD 11 10 9
BE 15 9 14
BF 11 8 9
BG 14 7 5
BH 12 6 6
BI 15 24 6
BJ 12 30 5
BK 23 5 6
BL 30 8 2
BM 10 10 8
BN 11 10 9
BO 15 9 14
BP 11 8 9
BQ 14 7 5
BR 12 6 6
BS 10 10 8
BT 11 10 9
BU 15 9 14
BV 11 8 9
BW 14 7 5
BX 12 6 6
BY 10 10 8
BZ 11 10 9
CA 23 5 6
CB 30 8 2
CC 10 10 8
CD 11 10 9
CE 15 9 14
CF 11 8 9
CG 14 7 5
CH 12 6 6
CI 15 24 6
CJ 12 30 5
CK 23 5 6
CL 30 8 2
CM 10 10 8
CN 11 10 9
CO 15 9 14
CP 11 8 9
CQ 14 7 5
CR 12 6 6
CS 10 10 8
CT 11 10 9
CU 15 9 14
CV 11 8 9
CW 14 7 5
CX 12 6 6
CY 10 10 8
CZ 11 10 9
DA 23 5 6
DB 30 8 2
DC 10 10 8
DD 11 10 9
DE 15 9 14
DF 11 8 9
DG 14 7 5
DH 12 6 6
DI 15 24 6
DJ 12 30 5
DK 23 5 6
DL 30 8 2
DM 10 10 8
DN 11 10 9
DO 15 9 14
DP 11 8 9
DQ 14 7 5
DR 12 6 6
DS 10 10 8
DT 11 10 9
DU 15 9 14
DV 11 8 9
DW 14 7 5
DX 12 6 6
DY 10 10 8
DZ 11 10 9
EA 23 5 6
EB 30 8 2
EC 10 10 8
ED 11 10 9
EE 15 9 14
EF 11 8 9
EG 14 7 5
EH 12 6 6
EI 15 24 6
EJ 12 30 5
EK 23 5 6
EL 30 8 2
EM 10 10 8
EN 50 50 50
EO 15 9 14
EP 11 8 9
EQ 14 7 5
ER 12 6 6
ES 10 10 8
ET 11 10 9
EU 15 9 14
EV 11 8 9
EW 14 7 5
EX 12 6 6
EY 10 10 8
EZ 11 10 9
FA 23 5 6
FB 30 8 2
FC 10 10 8
FD 11 10 9
FE 15 9 14
FF 11 8 9
FG 14 7 5
FH 12 6 6
FI 15 24 6
FJ 12 30 5
FK 23 5 6
FL 30 8 2
FM 10 10 8
FN 11 10 9
FO 15 9 14
FP 11 8 9
FQ 14 7 5
FR 12 6 6
FS 10 10 8
FT 50 10 50
FU 15 9 14
FV 11 8 9
FW 14 60 5
FX 12 6 6
FY 10 70 12
FZ 11 10 9
GA 23 5 6
GB 30 8 2
GC 10 10 8
GD 11 10 9
GE 15 9 14
GF 11 8 9
GG 14 7 5
GH 12 6 6
GI 15 24 6
GJ 12 30 5
GK 23 5 6
GL 30 8 2
GM 10 10 8
GN 11 10 9
GO 15 9 14
GP 11 8 9
GQ 14 7 5
GR 12 6 6
GS 10 10 8
GT 11 10 9
GU 15 9 14
GV 11 8 9
GW 14 7 5
GX 12 6 6
GY 10 10 8
GZ 11 10 9
HA 23 5 6
HB 30 8 2
HC 10 10 8
HD 11 10 9
HE 15 9 14
HF 11 8 9
HG 14 7 5
HH 12 6 6
HI 15 24 6
HJ 12 30 5
HK 23 5 6
HL 30 8 2
HM 10 10 8
HN 11 10 9
HO 15 9 14
HP 11 8 9
HQ 14 7 5
HR 12 6 6
HS 10 10 8
HT 11 10 9
HU 15 9 14
HV 11 8 9
HW 14 7 5
HX 12 6 6
HY 10 10 8
HZ 11 10 9
