En la caja:
EN 50 50 50
EM 10 10 8
EL 30 8 2
EK 23 5 6
EJ 12 30 5
EI 15 24 6
EH 12 6 6
EG 14 7 5
EF 11 8 9
EE 15 9 14
ED 11 10 9
EC 10 10 8
EB 30 8 2
EA 23 5 6
DZ 11 10 9
DY 10 10 8
DX 12 6 6
DW 14 7 5
DV 11 8 9
DU 15 9 14
DT 11 10 9
DS 10 10 8
DR 12 6 6
DQ 14 7 5
DP 11 8 9
DO 15 9 14
DN 11 10 9
DM 10 10 8
DL 30 8 2
DK 23 5 6
DJ 12 30 5
DI 15 24 6
DH 12 6 6
DG 14 7 5
DF 11 8 9
DE 15 9 14
DD 11 10 9
DC 10 10 8
DB 30 8 2
DA 23 5 6
CZ 11 10 9
CY 10 10 8
CX 12 6 6
CW 14 7 5
CV 11 8 9
CU 15 9 14
CT 11 10 9
CS 10 10 8
CR 12 6 6
CQ 14 7 5
CP 11 8 9
CO 15 9 14
CN 11 10 9
CM 10 10 8
CL 30 8 2
CK 23 5 6
CJ 12 30 5
CI 15 24 6
CH 12 6 6
CG 14 7 5
CF 11 8 9
CE 15 9 14
CD 11 10 9
CC 10 10 8
CB 30 8 2
CA 23 5 6
BZ 11 10 9
BY 10 10 8
BX 12 6 6
BW 14 7 5
BV 11 8 9
BU 15 9 14
BT 11 10 9
BS 10 10 8
BR 12 6 6
BQ 14 7 5
BP 11 8 9
BO 15 9 14
BN 11 10 9
BM 10 10 8
BL 30 8 2
BK 23 5 6
BJ 12 30 5
BI 15 24 6
BH 12 6 6
BG 14 7 5
BF 11 8 9
BE 15 9 14
BD 11 10 9
BC 10 10 8
BB 30 8 2
BA 23 5 6
AZ 11 10 9
AY 10 10 8
AX 12 6 6
AW 14 7 5
AV 11 8 9
AU 15 9 14
AT 11 10 9
AS 10 10 8
AR 12 6 6
AQ 14 7 5
AP 11 8 9
AO 15 9 14
AN 11 10 9
AM 10 10 8
AL 30 8 2
AK 23 5 6
AJ 12 30 5
AI 15 24 6
AH 12 6 6
AG 14 7 5
AF 11 8 9
AE 15 9 14
AD 11 10 9
AC 10 10 8
AB 30 8 2
AA 23 5 6
Z 12 30 5
Y 15 24 6
X 12 6 6
W 14 7 5
V 11 8 9
U 15 9 14
T 11 10 9
S 10 10 8
R 30 8 2
Q 23 5 6
P 12 30 5
O 15 24 6
N 12 6 6
M 14 7 5
L 11 8 9
K 15 9 14
J 11 10 9
I 10 10 8
H 30 8 2
G 23 5 6
F 12 30 5
E 15 24 6
D 13 24 6
C 10 18 10
B 13 20 4

Fuera de la caja:
HZ 11 10 9
HY 10 10 8
HX 12 6 6
HW 14 7 5
HV 11 8 9
HU 15 9 14
HT 11 10 9
HS 10 10 8
HR 12 6 6
HQ 14 7 5
HP 11 8 9
HO 15 9 14
HN 11 10 9
HM 10 10 8
HL 30 8 2
HK 23 5 6
HJ 12 30 5
HI 15 24 6
HH 12 6 6
HG 14 7 5
HF 11 8 9
HE 15 9 14
HD 11 10 9
HC 10 10 8
HB 30 8 2
HA 23 5 6
GZ 11 10 9
GY 10 10 8
GX 12 6 6
GW 14 7 5
GV 11 8 9
GU 15 9 14
GT 11 10 9
GS 10 10 8
GR 12 6 6
GQ 14 7 5
GP 11 8 9
GO 15 9 14
GN 11 10 9
GM 10 10 8
GL 30 8 2
GK 23 5 6
GJ 12 30 5
GI 15 24 6
GH 12 6 6
GG 14 7 5
GF 11 8 9
GE 15 9 14
GD 11 10 9
GC 10 10 8
GB 30 8 2
GA 23 5 6
FZ 11 10 9
FY 10 70 12
FX 12 6 6
FW 14 60 5
FV 11 8 9
FU 15 9 14
FT 50 10 50
FS 10 10 8
FR 12 6 6
FQ 14 7 5
FP 11 8 9
FO 15 9 14
FN 11 10 9
FM 10 10 8
FL 30 8 2
FK 23 5 6
FJ 12 30 5
FI 15 24 6
FH 12 6 6
FG 14 7 5
FF 11 8 9
FE 15 9 14
FD 11 10 9
FC 10 10 8
FB 30 8 2
FA 23 5 6
EZ 11 10 9
EY 10 10 8
EX 12 6 6
EW 14 7 5
EV 11 8 9
EU 15 9 14
ET 11 10 9
ES 10 10 8
ER 12 6 6
EQ 14 7 5
EP 11 8 9
EO 15 9 14
Espacio libre dentro de la caja:
-64302 centímetros cúbicos